[TITLE]
;;Project Title/Notes

[OPTIONS]
;;Option             Value
FLOW_UNITS           MLD
INFILTRATION         GREEN_AMPT
FLOW_ROUTING         DYNWAVE
LINK_OFFSETS         DEPTH
MIN_SLOPE            0
ALLOW_PONDING        NO
SKIP_STEADY_STATE    NO

START_DATE           08/28/2015
START_TIME           08:00:00
REPORT_START_DATE    08/28/2015
REPORT_START_TIME    08:00:00
END_DATE             08/29/2015
END_TIME             12:00:00
SWEEP_START          01/01
SWEEP_END            12/31
DRY_DAYS             4
REPORT_STEP          00:01:00
WET_STEP             00:01:00
DRY_STEP             00:01:00
ROUTING_STEP         0:00:05 
RULE_STEP            00:00:00

INERTIAL_DAMPING     PARTIAL
NORMAL_FLOW_LIMITED  BOTH
FORCE_MAIN_EQUATION  H-W
VARIABLE_STEP        0.75
LENGTHENING_STEP     0
MIN_SURFAREA         1.14
MAX_TRIALS           8
HEAD_TOLERANCE       0.0015
SYS_FLOW_TOL         5
LAT_FLOW_TOL         5
MINIMUM_STEP         0.5
THREADS              1

[EVAPORATION]
;;Data Source    Parameters
;;-------------- ----------------
CONSTANT         0.0
DRY_ONLY         NO

[RAINGAGES]
;;Name           Format    Interval SCF      Source    
;;-------------- --------- ------ ------ ----------
rainfall         INTENSITY 0:01     0        TIMESERIES Oneyear-2h      

[SUBCATCHMENTS]
;;Name           Rain Gage        Outlet           Area     %Imperv  Width    %Slope   CurbLen  SnowPack        
;;-------------- ---------------- ---------------- -------- -------- -------- -------- -------- ----------------
61               rainfall         CC-storage       18       25       106.0660172 0.5      0                        

[SUBAREAS]
;;Subcatchment   N-Imperv   N-Perv     S-Imperv   S-Perv     PctZero    RouteTo    PctRouted 
;;-------------- ---------- ---------- ---------- ---------- ---------- ---------- ----------
61               0.011      0.1        0.05       0.05       75         OUTLET    

[INFILTRATION]
;;Subcatchment   Suction    Ksat       IMD       
;;-------------- ---------- ---------- ----------
61               3.0        0.5        4         

[JUNCTIONS]
;;Name           Elevation  MaxDepth   InitDepth  SurDepth   Aponded   
;;-------------- ---------- ---------- ---------- ---------- ----------
WS02006248       7.59       1.077      0          0          10        
WS02006249       7.6        1.088      0          0          10        
WS02006251       7.67       2.21       0          0          10        
WS02006253       7.8        3.154      0          0          10        

[OUTFALLS]
;;Name           Elevation  Type       Stage Data       Gated    Route To        
;;-------------- ---------- ---------- ---------------- -------- ----------------
outfall-5        7.667      FREE                        NO                       
outfall-27       7.9        FREE                        NO                       

[STORAGE]
;;Name           Elev.    MaxDepth   InitDepth  Shape      Curve Name/Params            N/A      Fevap    Psi      Ksat     IMD     
;;-------------- -------- ---------- ----------- ---------- ---------------------------- -------- --------          -------- --------
CC-storage       3.18     5.63       0          TABULAR    CC-curve                     0        0       

[CONDUITS]
;;Name           From Node        To Node          Length     Roughness  InOffset   OutOffset  InitFlow   MaxFlow   
;;-------------- ---------------- ---------------- ---------- ---------- ---------- ---------- ---------- ----------
WSL2480          WS02006249       WS02006248       23.16515238 0.01       0          0          0          0         
WSL2482          WS02006251       WS02006249       51.35594132 0.01       0          0          0          0         
WSL2484          WS02006253       WS02006251       27.92915153 0.01       0          0          0          0         
8                WS02006248       outfall-5        5          0.01       0.6        0          0          0         
1                CC-storage       outfall-27       10         0.01       5.13       0          0          0         

[PUMPS]
;;Name           From Node        To Node          Pump Curve       Status   Sartup Shutoff 
;;-------------- ---------------- ---------------- ---------------- ------ -------- --------
CC-Pump-1        CC-storage       WS02006253       CC-Pumpcurve     OFF      3.02     0.9     
CC-Pump-2        CC-storage       WS02006253       CC-Pumpcurve     OFF      4.08     3.02    

[XSECTIONS]
;;Link           Shape        Geom1            Geom2      Geom3      Geom4      Barrels    Culvert   
;;-------------- ------------ ---------------- ---------- ---------- ---------- ---------- ----------
WSL2480          CIRCULAR     0.7              0          0          0          1                    
WSL2482          CIRCULAR     0.7              0          0          0          1                    
WSL2484          CIRCULAR     0.7              0          0          0          1                    
8                CIRCULAR     0.4              0          0          0          1                    
1                CIRCULAR     0.4              0          0          0          1                    

[CONTROLS]







[POLLUTANTS]
;;Name           Units  Crain      Cgw        Crdii      Kdecay     SnowOnly   Co-Pollutant     Co-Frac    Cdwf       Cinit     
;;-------------- ------ ---------- ---------- ---------- ---------- ---------- ---------------- ---------- ---------- ----------
COD              MG/L   0.0        0.0        167        0.0        NO         *                0.0        0          0.0       
NH3-N            MG/L   0.0        0.0        0.0        0.0        NO         *                0.0        0          0.0       
TN               MG/L   0.0        0.0        0.0        0.0        NO         *                0.0        0          0.0       
TP               MG/L   0.0        0.0        0.0        0.0        NO         *                0.0        0          0.0       
SS               MG/L   0.0        0.0        0.0        0.0        NO         *                0.0        0          0.0       

[LANDUSES]
;;               Sweeping   Fraction   Last      
;;Name           Interval   Available  Swept     
;;-------------- ---------- ---------- ----------
roof             0          0          0         
green            0          0          0         
road             0          0          1         

[COVERAGES]
;;Subcatchment   Land Use         Percent   
;;-------------- ---------------- ----------
61               roof             30        
61               green            20        
61               road             50        

[LOADINGS]
;;Subcatchment   Pollutant        Buildup   
;;-------------- ---------------- ----------

[BUILDUP]
;;Land Use       Pollutant        Function   Coeff1     Coeff2     Coeff3     Per Unit  
;;-------------- ---------------- ---------- ---------- ---------- ---------- ----------
roof             COD              SAT        120        0          10         AREA      
roof             NH3-N            NONE       0.0        0.0        0.0        AREA      
roof             TN               NONE       0.0        0.0        0.0        AREA      
roof             TP               NONE       0.0        0.0        0.0        AREA      
roof             SS               NONE       0.0        0.0        0.0        AREA      
green            COD              SAT        60         0          10         AREA      
green            NH3-N            NONE       0.0        0.0        0.0        AREA      
green            TN               NONE       0.0        0.0        0.0        AREA      
green            TP               NONE       0.0        0.0        0.0        AREA      
green            SS               NONE       0.0        0.0        0.0        AREA      
road             COD              SAT        240        0          10         AREA      
road             NH3-N            NONE       0.0        0.0        0.0        AREA      
road             TN               NONE       0.0        0.0        0.0        AREA      
road             TP               NONE       0.0        0.0        0.0        AREA      
road             SS               NONE       0.0        0.0        0.0        AREA      

[WASHOFF]
;;Land Use       Pollutant        Function   Coeff1     Coeff2     SweepRmvl  BmpRmvl   
;;-------------- ---------------- ---------- ---------- ---------- ---------- ----------
roof             COD              EXP        0.012      1.8        0          0.0       
roof             NH3-N            EMC        0.0        0.0        0.0        0.0       
roof             TN               EMC        0.0        0.0        0.0        0.0       
roof             TP               EMC        0.0        0.0        0.0        0.0       
roof             SS               EMC        0.0        0.0        0.0        0.0       
green            COD              EXP        0.01       1.5        0          0.0       
green            NH3-N            EMC        0.0        0.0        0.0        0.0       
green            TN               EMC        0.0        0.0        0.0        0.0       
green            TP               EMC        0.0        0.0        0.0        0.0       
green            SS               EMC        0.0        0.0        0.0        0.0       
road             COD              EXP        0.015      2          0.7        0.0       
road             NH3-N            EMC        0.0        0.0        0.0        0.0       
road             TN               EMC        0.0        0.0        0.0        0.0       
road             TP               EMC        0.0        0.0        0.0        0.0       
road             SS               EMC        0.0        0.0        0.0        0.0       

[INFLOWS]
;;Node           Constituent      Time Series      Type     Mfactor  Sfactor  Baseline Pattern
;;-------------- ---------------- ---------------- -------- -------- -------- -------- --------
WS02006248       FLOW             groundwateraver  FLOW     1.0      1.1732   1.1953290 time-rate
WS02006248       COD              ""               CONCEN   1        1        167      CODcurve
WS02006249       FLOW             groundwateraver  FLOW     1.0      1.1732   2.2118054 time-rate
WS02006249       COD              ""               CONCEN   1        1        167      CODcurve
WS02006251       FLOW             groundwateraver  FLOW     1.0      1.1732   0.1735800 time-rate
WS02006251       COD              ""               CONCEN   1        1        167      CODcurve
WS02006253       FLOW             groundwateraver  FLOW     1.0      1.1732   0.9829174 time-rate
WS02006253       COD              ""               CONCEN   1        1        167      CODcurve
CC-storage       FLOW             ""               FLOW     1.0      1.0      31.2     time-rate
CC-storage       COD              ""               CONCEN   1.0      1.0      167      CODcurve

[CURVES]
;;Name           Type       X-Value    Y-Value   
;;-------------- ---------- ---------- ----------
XB-Pumpcurve     Pump2      0          11.4      
XB-Pumpcurve                5.34       11.4      
;
CC-Pumpcurve     Pump2      0          17.28     
CC-Pumpcurve                5.63       17.28     
;
JK-Pumpcurve     Pump2      0          17.28     
JK-Pumpcurve                5.63       17.28     
;
XR-Pumpcurve     Pump2      0          8.12      
XR-Pumpcurve                7.72       8.12      
;
JK-curve         Storage    0          28.26     
JK-curve                    4.8        28.26     
;
CC-curve         Storage    0          28.26     
CC-curve                    5.63       28.26     
;
XR-curve         Storage    0          8.12      
XR-curve                    7.72       8.12      
;
XB-curve         Storage    0          11.4      
XB-curve                    5.34       11.4      
;
End-curve        Storage    0          10800     
End-curve                   10         10800     

[TIMESERIES]
;;Name           Date       Time       Value     
;;-------------- ---------- ---------- ----------
groundwateraver  8/28/2015  00:00      0.042     
groundwateraver  8/28/2015  01:00      0.042     
groundwateraver  8/28/2015  02:00      0.042     
groundwateraver  8/28/2015  03:00      0.042     
groundwateraver  8/28/2015  04:00      0.042     
groundwateraver  8/28/2015  05:00      0.042     
groundwateraver  8/28/2015  06:00      0.042     
groundwateraver  8/28/2015  07:00      0.042     
groundwateraver  8/28/2015  08:00      0.042     
groundwateraver  8/28/2015  09:00      0.042     
groundwateraver  8/28/2015  10:00      0.042     
groundwateraver  8/28/2015  11:00      0.042     
groundwateraver  8/28/2015  12:00      0.042     
groundwateraver  8/28/2015  13:00      0.042     
groundwateraver  8/28/2015  14:00      0.042     
groundwateraver  8/28/2015  15:00      0.042     
groundwateraver  8/28/2015  16:00      0.042     
groundwateraver  8/28/2015  17:00      0.042     
groundwateraver  8/28/2015  18:00      0.042     
groundwateraver  8/28/2015  19:00      0.042     
groundwateraver  8/28/2015  20:00      0.042     
groundwateraver  8/28/2015  21:00      0.042     
groundwateraver  8/28/2015  22:00      0.042     
groundwateraver  8/28/2015  23:00      0.042     
groundwateraver  8/29/2015  00:00      0.042     
groundwateraver  8/29/2015  01:00      0.042     
groundwateraver  8/29/2015  02:00      0.042     
groundwateraver  8/29/2015  03:00      0.042     
groundwateraver  8/29/2015  04:00      0.042     
groundwateraver  8/29/2015  05:00      0.042     
groundwateraver  8/29/2015  06:00      0.042     
groundwateraver  8/29/2015  07:00      0.042     
groundwateraver  8/29/2015  08:00      0.042     
groundwateraver  8/29/2015  09:00      0.042     
groundwateraver  8/29/2015  10:00      0.042     
groundwateraver  8/29/2015  11:00      0.042     
groundwateraver  8/29/2015  12:00      0.042     
groundwateraver  8/29/2015  13:00      0.042     
groundwateraver  8/29/2015  14:00      0.042     
groundwateraver  8/29/2015  15:00      0.042     
groundwateraver  8/29/2015  16:00      0.042     
groundwateraver  8/29/2015  17:00      0.042     
groundwateraver  8/29/2015  18:00      0.042     
groundwateraver  8/29/2015  19:00      0.042     
groundwateraver  8/29/2015  20:00      0.042     
groundwateraver  8/29/2015  21:00      0.042     
groundwateraver  8/29/2015  22:00      0.042     
groundwateraver  8/29/2015  23:00      0.042     
;
Oneyear-2h        08/28/2015 09:01      12.170063907811958
Oneyear-2h        08/28/2015 09:02      12.233285444443355
Oneyear-2h        08/28/2015 09:03      12.297502607167225
Oneyear-2h        08/28/2015 09:04      12.362741805591664
Oneyear-2h        08/28/2015 09:05      12.429030440591102
Oneyear-2h        08/28/2015 09:06      12.496396952662016
Oneyear-2h        08/28/2015 09:07      12.564870873193344
Oneyear-2h        08/28/2015 09:08      12.634482878861522
Oneyear-2h        08/28/2015 09:09      12.705264849377677
Oneyear-2h        08/28/2015 09:10      12.777249928833937
Oneyear-2h        08/28/2015 09:11      12.85047259091698
Oneyear-2h        08/28/2015 09:12      12.924968708280256
Oneyear-2h        08/28/2015 09:13      13.000775626392018
Oneyear-2h        08/28/2015 09:14      13.077932242204461
Oneyear-2h        08/28/2015 09:15      13.156479088020419
Oneyear-2h        08/28/2015 09:16      13.236458420968386
Oneyear-2h        08/28/2015 09:17      13.317914318534555
Oneyear-2h        08/28/2015 09:18      13.400892780642472
Oneyear-2h        08/28/2015 09:19      13.485441838817412
Oneyear-2h        08/28/2015 09:20      13.571611673023934
Oneyear-2h        08/28/2015 09:21      13.659454736822376
Oneyear-2h        08/28/2015 09:22      13.749025891553401
Oneyear-2h        08/28/2015 09:23      13.840382550330531
Oneyear-2h        08/28/2015 09:24      13.933584832699287
Oneyear-2h        08/28/2015 09:25      14.02869573090952
Oneyear-2h        08/28/2015 09:26      14.125781288845804
Oneyear-2h        08/28/2015 09:27      14.22491079477069
Oneyear-2h        08/28/2015 09:28      14.326156989158997
Oneyear-2h        08/28/2015 09:29      14.429596289039667
Oneyear-2h        08/28/2015 09:30      14.53530903041748
Oneyear-2h        08/28/2015 09:31      14.64337973052223
Oneyear-2h        08/28/2015 09:32      14.753897371830801
Oneyear-2h        08/28/2015 09:33      14.866955710031274
Oneyear-2h        08/28/2015 09:34      14.982653608351374
Oneyear-2h        08/28/2015 09:35      15.101095400960862
Oneyear-2h        08/28/2015 09:36      15.222391288483895
Oneyear-2h        08/28/2015 09:37      15.346657769029244
Oneyear-2h        08/28/2015 09:38      15.474018108570489
Oneyear-2h        08/28/2015 09:39      15.604602854993413
Oneyear-2h        08/28/2015 09:40      15.738550400683756
Oneyear-2h        08/28/2015 09:41      15.876007599166982
Oneyear-2h        08/28/2015 09:42      16.017130442046618
Oneyear-2h        08/28/2015 09:43      16.16208480333583
Oneyear-2h        08/28/2015 09:44      16.311047259257805
Oneyear-2h        08/28/2015 09:45      16.464205992728044
Oneyear-2h        08/28/2015 09:46      16.62176179305429
Oneyear-2h        08/28/2015 09:47      16.78392916293186
Oneyear-2h        08/28/2015 09:48      16.950937546614963
Oneyear-2h        08/28/2015 09:49      17.12303269525871
Oneyear-2h        08/28/2015 09:50      17.300478187913168
Oneyear-2h        08/28/2015 09:51      17.48355712958458
Oneyear-2h        08/28/2015 09:52      17.672574051252436
Oneyear-2h        08/28/2015 09:53      17.86785704085663
Oneyear-2h        08/28/2015 09:54      18.06976013918762
Oneyear-2h        08/28/2015 09:55      18.2786660404978
Oneyear-2h        08/28/2015 09:56      18.494989144721927
Oneyear-2h        08/28/2015 09:57      18.719179016721057
Oneyear-2h        08/28/2015 09:58      18.951724318292282
Oneyear-2h        08/28/2015 09:59      19.19315729125146
Oneyear-2h        08/28/2015 10:00      19.444058885253657
Oneyear-2h        08/28/2015 10:01      19.705064642879385
Oneyear-2h        08/28/2015 10:02      19.976871477801833
Oneyear-2h        08/28/2015 10:03      20.26024551075476
Oneyear-2h        08/28/2015 10:04      20.55603116410052
Oneyear-2h        08/28/2015 10:05      20.86516176110388
Oneyear-2h        08/28/2015 10:06      21.1886719332687
Oneyear-2h        08/28/2015 10:07      21.52771221192398
Oneyear-2h        08/28/2015 10:08      21.883566273547252
Oneyear-2h        08/28/2015 10:09      22.257671428739478
Oneyear-2h        08/28/2015 10:10      22.651643101441294
Oneyear-2h        08/28/2015 10:11      23.067304250550887
Oneyear-2h        08/28/2015 10:12      23.50672095827231
Oneyear-2h        08/28/2015 10:13      23.972245773362197
Oneyear-2h        08/28/2015 10:14      24.46657088888671
Oneyear-2h        08/28/2015 10:15      24.99279390532403
Oneyear-2h        08/28/2015 10:16      25.554499857667874
Oneyear-2h        08/28/2015 10:17      26.155864484408923
Oneyear-2h        08/28/2015 10:18      26.801785561284944
Oneyear-2h        08/28/2015 10:19      27.498051783106803
Oneyear-2h        08/28/2015 10:20      28.251562577691608
Oneyear-2h        08/28/2015 10:21      29.07061806083496
Oneyear-2h        08/28/2015 10:22      29.965307216702747
Oneyear-2h        08/28/2015 10:23      30.948036217140977
Oneyear-2h        08/28/2015 10:24      32.034260884093236
Oneyear-2h        08/28/2015 10:25      33.24352358610858
Oneyear-2h        08/28/2015 10:26      34.600956375826335
Oneyear-2h        08/28/2015 10:27      36.13952027837524
Oneyear-2h        08/28/2015 10:28      37.903448636584564
Oneyear-2h        08/28/2015 10:29      39.953742955603666
Oneyear-2h        08/28/2015 10:30      42.3773438665374
Oneyear-2h        08/28/2015 10:31      45.30328620288259
Oneyear-2h        08/28/2015 10:32      48.93314177777342
Oneyear-2h        08/28/2015 10:33      53.60357112256989
Oneyear-2h        08/28/2015 10:34      59.930614433405495
Oneyear-2h        08/28/2015 10:35      69.20191275165267
Oneyear-2h        08/28/2015 10:36      84.7546877330748
Oneyear-2h        08/28/2015 10:37      119.86122886681099
Oneyear-2h        08/28/2015 10:38      84.7546877330748
Oneyear-2h        08/28/2015 10:39      69.20191275165267
Oneyear-2h        08/28/2015 10:40      59.930614433405495
Oneyear-2h        08/28/2015 10:41      53.60357112256989
Oneyear-2h        08/28/2015 10:42      48.93314177777342
Oneyear-2h        08/28/2015 10:43      45.30328620288259
Oneyear-2h        08/28/2015 10:44      42.3773438665374
Oneyear-2h        08/28/2015 10:45      39.953742955603666
Oneyear-2h        08/28/2015 10:46      37.903448636584564
Oneyear-2h        08/28/2015 10:47      36.13952027837524
Oneyear-2h        08/28/2015 10:48      34.600956375826335
Oneyear-2h        08/28/2015 10:49      33.24352358610858
Oneyear-2h        08/28/2015 10:50      32.034260884093236
Oneyear-2h        08/28/2015 10:51      30.948036217140977
Oneyear-2h        08/28/2015 10:52      29.965307216702747
Oneyear-2h        08/28/2015 10:53      29.07061806083496
Oneyear-2h        08/28/2015 10:54      28.251562577691608
Oneyear-2h        08/28/2015 10:55      27.498051783106803
Oneyear-2h        08/28/2015 10:56      26.801785561284944
Oneyear-2h        08/28/2015 10:57      26.155864484408923
Oneyear-2h        08/28/2015 10:58      25.554499857667874
Oneyear-2h        08/28/2015 10:59      24.99279390532403
Oneyear-2h        08/28/2015 11:00      24.46657088888671
;
Realtec          08/28/2015 03:00      1.3       
Realtec          08/28/2015 04:00      1.7       
Realtec          08/28/2015 05:00      0.5       
Realtec          08/28/2015 06:00      10.5      
Realtec          08/28/2015 07:00      2.1       
Realtec          08/28/2015 08:00      0.1       
Realtec          08/28/2015 09:00      0.4       
Realtec          08/28/2015 10:00      1.2       
Realtec          08/28/2015 11:00      0.5       
Realtec          08/28/2015 12:00      0.8       
Realtec          08/28/2015 13:00      0.7       
Realtec          08/28/2015 14:00      0         
Realtec          08/28/2015 15:00      0.5       
Realtec          08/28/2015 16:00      0         
Realtec          08/28/2015 17:00      0         
Realtec          08/28/2015 18:00      0         
Realtec          08/28/2015 19:00      0         
Realtec          08/28/2015 20:00      0         
Realtec          08/28/2015 21:00      0         
Realtec          08/28/2015 22:00      0         
Realtec          08/28/2015 23:00      0         
Realtec          08/28/2015 24:00:00   0         

[PATTERNS]
;;Name           Type       Multipliers
;;-------------- ---------- -----------
time-rate        HOURLY     0.040306218 0.043345101 0.033317295 0.022440628 0.016416550 0.019691959
time-rate                   0.017853435 0.035935292 0.060459580 0.061740469 0.051898542 0.046751181
time-rate                   0.047313881 0.040162884 0.049338790 0.033401371 0.036940656 0.028880526
time-rate                   0.042825452 0.057302688 0.062746846 0.052506318 0.053608926 0.044815413
;
CODcurve         HOURLY     1.0   1.0   1.0   1.0   1.0   1.0  
CODcurve                    1.0   1.0   1.0   1.0   1.0   1.0  
CODcurve                    1.0   1.0   1.0   1.0   1.0   1.0  
CODcurve                    1.0   1.0   1.0   1.0   1.0   1.0  

[REPORT]
;;Reporting Options
SUBCATCHMENTS ALL
NODES ALL
LINKS ALL

[TAGS]

[MAP]
DIMENSIONS 528870.460 495106.109 532241.600 498876.375
Units      Meters

[COORDINATES]
;;Node           X-Coord            Y-Coord           
;;-------------- ------------------ ------------------
WS02006248       531136.025         498481.684        
WS02006249       531138.078         498504.758        
WS02006251       531134.781         498556.008        
WS02006253       531130.249         498583.567        
outfall-5        531184.978         498510.968        
outfall-27       531255.933         498731.025        
CC-storage       531371.004         498644.420        

[VERTICES]
;;Link           X-Coord            Y-Coord           
;;-------------- ------------------ ------------------
CC-Pump-1        531192.604         498617.216        
CC-Pump-2        531212.396         498585.730        

[Polygons]
;;Subcatchment   X-Coord            Y-Coord           
;;-------------- ------------------ ------------------
61               531465.177         498876.291        
61               531630.755         498505.967        
61               531935.204         498648.400        
61               531755.383         499009.821        
61               531461.616         498874.511        

[SYMBOLS]
;;Gage           X-Coord            Y-Coord           
;;-------------- ------------------ ------------------
rainfall         530149.897         498517.624        

